Version 4
SHEET 1 1572 968
WIRE 1312 256 1312 224
WIRE 1312 256 928 256
WIRE 1312 288 1312 256
WIRE 688 304 688 272
WIRE 752 304 688 304
WIRE 928 336 928 256
WIRE 688 352 688 304
WIRE 1024 384 992 384
WIRE 1312 416 1312 368
WIRE 1392 416 1312 416
WIRE 1312 480 1312 416
WIRE 176 496 176 480
WIRE 368 496 368 480
WIRE 688 528 688 432
WIRE 752 528 688 528
WIRE 1024 528 1024 384
WIRE 1024 528 816 528
WIRE 1088 528 1024 528
WIRE 1248 528 1168 528
WIRE 176 592 176 576
WIRE 368 592 368 576
WIRE 1312 608 1312 576
WIRE 1312 608 1200 608
WIRE 688 624 688 528
WIRE 1312 624 1312 608
WIRE 1200 656 1200 608
WIRE 688 784 688 704
WIRE 928 784 928 448
WIRE 928 784 688 784
WIRE 1200 784 1200 720
WIRE 1200 784 928 784
WIRE 1312 784 1312 704
WIRE 1312 784 1200 784
WIRE 1312 848 1312 784
WIRE 1312 896 1312 848
WIRE 1312 944 1312 896
FLAG 1312 944 0
FLAG 1312 224 Vp
IOPIN 1312 224 In
FLAG 688 272 W1
IOPIN 688 272 In
FLAG 752 304 1+
IOPIN 752 304 In
FLAG 1392 416 2+
IOPIN 1392 416 In
FLAG 1312 848 1-
IOPIN 1312 848 In
FLAG 176 592 0
FLAG 368 592 0
FLAG 176 480 Vp
IOPIN 176 480 In
FLAG 368 480 W1
IOPIN 368 480 In
FLAG 1312 896 2-
IOPIN 1312 896 In
SYMBOL res 672 336 R0
SYMATTR InstName R1
SYMATTR Value 10k
SYMBOL res 672 608 R0
SYMATTR InstName R2
SYMATTR Value 1k
SYMBOL res 1184 512 R90
WINDOW 0 0 56 VBottom 2
WINDOW 3 32 56 VTop 2
SYMATTR InstName Rb
SYMATTR Value 1k
SYMBOL res 1328 384 R180
WINDOW 0 36 76 Left 2
WINDOW 3 36 40 Left 2
SYMATTR InstName RL
SYMATTR Value 100
SYMBOL potentiometer 944 352 M0
WINDOW 0 -47 -59 Left 2
WINDOW 39 -165 -25 Left 2
SYMATTR InstName Rpot
SYMATTR SpiceLine R=50k, Val=57
SYMBOL npn 1248 480 R0
WINDOW 3 65 86 Left 2
SYMATTR Value 2N3904
SYMATTR InstName Q1
SYMBOL cap 816 512 R90
WINDOW 0 0 32 VBottom 2
WINDOW 3 32 32 VTop 2
SYMATTR InstName C1
SYMATTR Value 4.7µ
SYMBOL voltage 368 480 R0
WINDOW 123 0 0 Left 0
WINDOW 39 0 0 Left 0
SYMATTR InstName W1
SYMATTR Value SINE(0 1 1k)
SYMBOL voltage 176 480 R0
WINDOW 123 0 0 Left 0
WINDOW 39 0 0 Left 0
SYMATTR InstName Vp
SYMATTR Value 5
SYMBOL cap 1184 656 R0
SYMATTR InstName C2
SYMATTR Value 1000
SYMBOL res 1328 720 R180
WINDOW 0 36 76 Left 2
WINDOW 3 36 40 Left 2
SYMATTR InstName RE
SYMATTR Value 100
TEXT 576 72 Left 3 ;Adding Capacitor to the Degeneration
TEXT 648 856 Left 2 !.tran 5m
