Version 4
SHEET 1 880 680
WIRE 112 -160 112 -176
WIRE 112 -160 -80 -160
WIRE 112 -144 112 -160
WIRE -80 -112 -80 -160
WIRE 112 -32 112 -64
WIRE 208 -32 112 -32
WIRE 112 0 112 -32
WIRE -160 48 -208 48
WIRE -16 48 -16 -64
WIRE -16 48 -96 48
WIRE 48 48 -16 48
WIRE -592 80 -592 32
WIRE -464 80 -464 32
WIRE 304 80 272 80
WIRE -208 112 -208 48
WIRE 112 128 112 96
WIRE 192 128 112 128
WIRE 272 128 272 80
WIRE 272 128 256 128
WIRE 320 128 272 128
WIRE 112 160 112 128
WIRE -592 208 -592 160
WIRE -464 208 -464 160
WIRE -80 208 -80 0
WIRE -80 208 -112 208
WIRE -80 240 -80 208
WIRE -80 240 -112 240
WIRE -80 272 -80 240
WIRE 112 272 112 240
WIRE 112 272 -80 272
WIRE -80 288 -80 272
FLAG 112 -176 Vp
IOPIN 112 -176 In
FLAG 320 128 W1
IOPIN 320 128 In
FLAG -592 208 0
FLAG -464 208 0
FLAG -592 32 W1
IOPIN -592 32 In
FLAG -464 32 Vp
IOPIN -464 32 In
FLAG 304 80 1+
IOPIN 304 80 In
FLAG 208 -32 2+
IOPIN 208 -32 In
FLAG -80 288 0
FLAG -208 112 0
FLAG -112 208 1-
IOPIN -112 208 In
FLAG -112 240 2-
IOPIN -112 240 In
SYMBOL npn 48 0 R0
SYMATTR InstName Q1
SYMATTR Value 2N3904
SYMBOL voltage -592 64 R0
WINDOW 3 -195 104 Left 2
WINDOW 123 0 0 Left 0
WINDOW 39 0 0 Left 0
SYMATTR Value SINE(0 0.05 1000)
SYMATTR InstName V1
SYMBOL voltage -464 64 R0
WINDOW 123 0 0 Left 0
WINDOW 39 0 0 Left 0
SYMATTR InstName V2
SYMATTR Value 5
SYMBOL res 96 -160 R0
SYMATTR InstName R1
SYMATTR Value 1k
SYMBOL cap -96 32 R90
WINDOW 0 0 32 VBottom 2
WINDOW 3 32 32 VTop 2
SYMATTR InstName C1
SYMATTR Value 4.7µ
SYMBOL potentiometer -64 -96 M0
WINDOW 0 26 -31 Left 2
WINDOW 39 26 -3 Left 2
SYMATTR InstName Rpot
SYMATTR SpiceLine R=5k, Val=55
SYMBOL res 96 144 R0
SYMATTR InstName RE
SYMATTR Value 1k
SYMBOL cap 256 112 R90
WINDOW 0 0 32 VBottom 2
WINDOW 3 32 32 VTop 2
SYMATTR InstName C2
SYMATTR Value 100
TEXT -328 296 Left 2 !.tran 10m
TEXT -424 -208 Left 2 ;Common Base Amplifier
